@<TRIPOS>MOLECULE
*****
 38 42 0 0 0
SMALL
GASTEIGER

@<TRIPOS>ATOM
      1 F          20.9295   32.8461   -0.0815 F       1  UNL1       -0.1949
      2 C          22.3012   32.2765   -0.2916 C.3     1  UNL1        0.3549
      3 F          22.4768   33.6215   -0.9321 F       1  UNL1       -0.1949
      4 C          23.7337   32.1739   -0.7242 C.3     1  UNL1        0.2834
      5 N          24.5144   30.9242   -0.4433 N.pl3   1  UNL1       -0.1097
      6 C          23.8624   29.7771    0.2701 C.2     1  UNL1        0.3476
      7 N          22.4298   29.8796    0.7026 N.2     1  UNL1       -0.0589
      8 C          21.6492   31.1293    0.4217 C.3     1  UNL1        0.3329
      9 C          24.8763   28.6801    0.4072 C.3     1  UNL1        0.2788
     10 N          26.1548   29.1493   -0.2215 N.2     1  UNL1       -0.0796
     11 C          25.9312   30.5363   -0.7471 C.cat   1  UNL1        0.4044
     12 N          26.9461   31.3860   -1.4527 N.pl3   1  UNL1       -0.2440
     13 H          27.8554   31.0414   -1.6063 H       1  UNL1        0.2420
     14 H          26.7029   32.2884   -1.7622 H       1  UNL1        0.2420
     15 C          25.6569   27.4304    0.6880 C.ar    1  UNL1        0.0287
     16 C          26.2732   26.6611   -0.4426 C.ar    1  UNL1       -0.0001
     17 C          27.0538   25.4114   -0.1618 C.ar    1  UNL1        0.0014
     18 C          27.2182   24.9310    1.2497 C.ar    1  UNL1        0.0000
     19 C          26.6019   25.7004    2.3803 C.ar    1  UNL1       -0.0002
     20 C          25.8213   26.9501    2.0995 C.ar    1  UNL1       -0.0001
     21 C          27.6700   24.6420   -1.2924 C.ar    1  UNL1        0.0222
     22 C          29.0544   24.9785   -1.7618 C.ar    1  UNL1        0.0401
     23 C          29.6707   24.2091   -2.8924 C.ar    1  UNL1        0.1578
     24 C          28.9026   23.1033   -3.5536 C.ar    1  UNL1        0.1356
     25 N          27.5182   22.7668   -3.0842 N.ar    1  UNL1       -0.2391
     26 C          26.9020   23.5362   -1.9536 C.ar    1  UNL1        0.0991
     27 O          31.0550   24.5456   -3.3618 O.3     1  UNL1       -0.4699
     28 C          31.8539   23.5334   -4.1282 C.3     1  UNL1        0.2525
     29 C          23.7609   27.9497    1.0945 C.ar    1  UNL1        0.0289
     30 C          23.0047   26.8785    0.3660 C.ar    1  UNL1        0.0030
     31 C          21.8894   26.1480    1.0533 C.ar    1  UNL1        0.0369
     32 C          21.5302   26.4888    2.4693 C.ar    1  UNL1        0.1443
     33 C          22.2863   27.5599    3.1978 C.ar    1  UNL1        0.0369
     34 C          23.4017   28.2904    2.5105 C.ar    1  UNL1        0.0030
     35 O          20.4148   25.7583    3.1566 O.3     1  UNL1       -0.4236
     36 C          19.2469   25.2540    2.3620 C.3     1  UNL1        0.5087
     37 F          18.7740   23.8414    2.5380 F       1  UNL1       -0.1550
     38 F          18.5517   26.1623    1.3914 F       1  UNL1       -0.1550
@<TRIPOS>BOND
     1     1     2    1
     2     2     3    1
     3     2     4    1
     4     4     5    1
     5     5     6    1
     6     6     7    2
     7     7     8    1
     8     6     9    1
     9     9    10    1
    10    10    11    2
    11    11    12    1
    12     9    15    1
    13    15    16   ar
    14    16    17   ar
    15    17    18   ar
    16    18    19   ar
    17    19    20   ar
    18    17    21    1
    19    21    22   ar
    20    22    23   ar
    21    23    27    1
    22    27    28    1
    23    23    24   ar
    24    24    25   ar
    25    25    26   ar
    26     9    29    1
    27    29    30   ar
    28    30    31   ar
    29    31    32   ar
    30    32    35    1
    31    35    36    1
    32    36    37    1
    33    36    38    1
    34    32    33   ar
    35    33    34   ar
    36     8     2    1
    37    20    15   ar
    38    26    21   ar
    39    34    29   ar
    40    11     5    1
    41    12    13    1
    42    12    14    1
@<TRIPOS>MOLECULE
*****
 38 42 0 0 0
SMALL
GASTEIGER

@<TRIPOS>ATOM
      1 F          29.5266   26.0310   -2.4125 F       1  UNL1       -0.1949
      2 C          28.4400   25.3433   -1.6402 C.3     1  UNL1        0.3549
      3 F          29.3478   24.1790   -1.9057 F       1  UNL1       -0.1949
      4 C          27.6687   24.2512   -0.9601 C.3     1  UNL1        0.2834
      5 N          26.3670   24.5623   -0.2827 N.pl3   1  UNL1       -0.1097
      6 C          25.8366   25.9653   -0.2855 C.2     1  UNL1        0.3476
      7 N          26.6078   27.0573   -0.9656 N.2     1  UNL1       -0.0589
      8 C          27.9096   26.7463   -1.6429 C.3     1  UNL1        0.3329
      9 C          24.5344   25.9700    0.4590 C.3     1  UNL1        0.2788
     10 N          24.2601   24.5698    0.9219 N.2     1  UNL1       -0.0796
     11 C          25.3927   23.6997    0.4635 C.cat   1  UNL1        0.4044
     12 N          25.5273   22.2260    0.7083 N.pl3   1  UNL1       -0.2440
     13 H          24.8314   21.7450    1.2118 H       1  UNL1        0.2420
     14 H          26.3117   21.7397    0.3654 H       1  UNL1        0.2420
     15 C          23.2327   26.2810    1.1364 C.ar    1  UNL1        0.0287
     16 C          22.0301   25.4216    0.8807 C.ar    1  UNL1       -0.0001
     17 C          20.7284   25.7326    1.5581 C.ar    1  UNL1        0.0014
     18 C          20.6293   26.9030    2.4911 C.ar    1  UNL1        0.0000
     19 C          21.8319   27.7623    2.7467 C.ar    1  UNL1       -0.0002
     20 C          23.1336   27.4513    2.0694 C.ar    1  UNL1       -0.0001
     21 C          19.5258   24.8733    1.3025 C.ar    1  UNL1        0.0222
     22 C          19.3111   24.2680   -0.0530 C.ar    1  UNL1        0.0401
     23 C          18.1085   23.4086   -0.3087 C.ar    1  UNL1        0.1578
     24 C          17.1206   23.1547    0.7911 C.ar    1  UNL1        0.1356
     25 N          17.3354   23.7601    2.1467 N.ar    1  UNL1       -0.2391
     26 C          18.5380   24.6194    2.4023 C.ar    1  UNL1        0.0991
     27 O          17.8937   22.8033   -1.6642 O.3     1  UNL1       -0.4699
     28 C          18.2520   23.5788   -2.8973 C.3     1  UNL1        0.2525
     29 C          24.5366   27.4352    0.1378 C.ar    1  UNL1        0.0289
     30 C          25.2978   28.3923    1.0063 C.ar    1  UNL1        0.0030
     31 C          25.3000   29.8575    0.6851 C.ar    1  UNL1        0.0369
     32 C          24.5411   30.3656   -0.5048 C.ar    1  UNL1        0.1443
     33 C          23.7799   29.4084   -1.3734 C.ar    1  UNL1        0.0369
     34 C          23.7777   27.9432   -1.0521 C.ar    1  UNL1        0.0030
     35 O          24.5433   31.8308   -0.8261 O.3     1  UNL1       -0.4236
     36 C          23.3061   32.6492   -0.6036 C.3     1  UNL1        0.5087
     37 F          22.9334   33.0833    0.7830 F       1  UNL1       -0.1550
     38 F          22.4416   33.0336   -1.7677 F       1  UNL1       -0.1550
@<TRIPOS>BOND
     1     1     2    1
     2     2     3    1
     3     2     4    1
     4     4     5    1
     5     5     6    1
     6     6     7    2
     7     7     8    1
     8     6     9    1
     9     9    10    1
    10    10    11    2
    11    11    12    1
    12     9    15    1
    13    15    16   ar
    14    16    17   ar
    15    17    18   ar
    16    18    19   ar
    17    19    20   ar
    18    17    21    1
    19    21    22   ar
    20    22    23   ar
    21    23    27    1
    22    27    28    1
    23    23    24   ar
    24    24    25   ar
    25    25    26   ar
    26     9    29    1
    27    29    30   ar
    28    30    31   ar
    29    31    32   ar
    30    32    35    1
    31    35    36    1
    32    36    37    1
    33    36    38    1
    34    32    33   ar
    35    33    34   ar
    36     8     2    1
    37    20    15   ar
    38    26    21   ar
    39    34    29   ar
    40    11     5    1
    41    12    13    1
    42    12    14    1
@<TRIPOS>MOLECULE
*****
 38 42 0 0 0
SMALL
GASTEIGER

@<TRIPOS>ATOM
      1 F          20.2630   32.7339    0.0474 F       1  UNL1       -0.1949
      2 C          21.6905   32.3086   -0.1295 C.3     1  UNL1        0.3549
      3 F          21.7444   33.6697   -0.7577 F       1  UNL1       -0.1949
      4 C          23.1368   32.3560   -0.5246 C.3     1  UNL1        0.2834
      5 N          24.0333   31.1901   -0.2301 N.pl3   1  UNL1       -0.1097
      6 C          23.4837   29.9768    0.4595 C.2     1  UNL1        0.3476
      7 N          22.0375   29.9294    0.8546 N.2     1  UNL1       -0.0589
      8 C          21.1409   31.0953    0.5601 C.3     1  UNL1        0.3329
      9 C          24.6003   28.9877    0.6173 C.3     1  UNL1        0.2788
     10 N          25.8400   29.5897    0.0253 N.2     1  UNL1       -0.0796
     11 C          25.4897   30.9509   -0.4985 C.cat   1  UNL1        0.4044
     12 N          26.4304   31.9054   -1.1724 N.pl3   1  UNL1       -0.2440
     13 H          27.3738   31.6564   -1.3038 H       1  UNL1        0.2420
     14 H          26.1044   32.7808   -1.4832 H       1  UNL1        0.2420
     15 C          25.4968   27.8217    0.9119 C.ar    1  UNL1        0.0287
     16 C          25.3204   26.5326    0.1654 C.ar    1  UNL1       -0.0001
     17 C          26.2170   25.3667    0.4599 C.ar    1  UNL1        0.0014
     18 C          27.2900   25.4899    1.5009 C.ar    1  UNL1        0.0000
     19 C          27.4664   26.7789    2.2473 C.ar    1  UNL1       -0.0002
     20 C          26.5698   27.9449    1.9528 C.ar    1  UNL1       -0.0001
     21 C          26.0406   24.0776   -0.2865 C.ar    1  UNL1        0.0222
     22 C          25.1973   22.9827    0.2966 C.ar    1  UNL1        0.0401
     23 C          25.0209   21.6936   -0.4498 C.ar    1  UNL1        0.1578
     24 C          25.6878   21.4994   -1.7793 C.ar    1  UNL1        0.1356
     25 N          26.5311   22.5944   -2.3624 N.ar    1  UNL1       -0.2391
     26 C          26.7075   23.8835   -1.6160 C.ar    1  UNL1        0.0991
     27 O          24.1777   20.5987    0.1333 O.3     1  UNL1       -0.4699
     28 C          22.9866   20.0866   -0.6213 C.3     1  UNL1        0.2525
     29 C          23.5479   28.1419    1.2710 C.ar    1  UNL1        0.0289
     30 C          22.7712   27.1494    0.4575 C.ar    1  UNL1        0.0030
     31 C          21.7189   26.3036    1.1112 C.ar    1  UNL1        0.0369
     32 C          21.4433   26.4502    2.5783 C.ar    1  UNL1        0.1443
     33 C          22.2200   27.4426    3.3918 C.ar    1  UNL1        0.0369
     34 C          23.2724   28.2885    2.7381 C.ar    1  UNL1        0.0030
     35 O          20.3910   25.6044    3.2320 O.3     1  UNL1       -0.4236
     36 C          19.1548   25.2250    2.4718 C.3     1  UNL1        0.5087
     37 F          18.5921   23.8403    2.5983 F       1  UNL1       -0.1550
     38 F          18.4813   26.2302    1.5852 F       1  UNL1       -0.1550
@<TRIPOS>BOND
     1     1     2    1
     2     2     3    1
     3     2     4    1
     4     4     5    1
     5     5     6    1
     6     6     7    2
     7     7     8    1
     8     6     9    1
     9     9    10    1
    10    10    11    2
    11    11    12    1
    12     9    15    1
    13    15    16   ar
    14    16    17   ar
    15    17    18   ar
    16    18    19   ar
    17    19    20   ar
    18    17    21    1
    19    21    22   ar
    20    22    23   ar
    21    23    27    1
    22    27    28    1
    23    23    24   ar
    24    24    25   ar
    25    25    26   ar
    26     9    29    1
    27    29    30   ar
    28    30    31   ar
    29    31    32   ar
    30    32    35    1
    31    35    36    1
    32    36    37    1
    33    36    38    1
    34    32    33   ar
    35    33    34   ar
    36     8     2    1
    37    20    15   ar
    38    26    21   ar
    39    34    29   ar
    40    11     5    1
    41    12    13    1
    42    12    14    1
@<TRIPOS>MOLECULE
*****
 38 42 0 0 0
SMALL
GASTEIGER

@<TRIPOS>ATOM
      1 F          16.8522   22.0481    0.2806 F       1  UNL1       -0.1949
      2 C          17.7528   21.3473    1.2542 C.3     1  UNL1        0.3549
      3 F          16.8732   22.0998    2.2082 F       1  UNL1       -0.1949
      4 C          18.3479   20.9079    2.5591 C.3     1  UNL1        0.2834
      5 N          19.5098   19.9593    2.5719 N.pl3   1  UNL1       -0.1097
      6 C          20.0767   19.4502    1.2799 C.2     1  UNL1        0.3476
      7 N          19.4816   19.8896   -0.0250 N.2     1  UNL1       -0.0589
      8 C          18.3197   20.8382   -0.0378 C.3     1  UNL1        0.3329
      9 C          21.2166   18.5308    1.6042 C.3     1  UNL1        0.2788
     10 N          21.3543   18.4716    3.0967 N.2     1  UNL1       -0.0796
     11 C          20.2994   19.3545    3.6949 C.cat   1  UNL1        0.4044
     12 N          20.0737   19.5911    5.1588 N.pl3   1  UNL1       -0.2440
     13 H          20.6476   19.1461    5.8235 H       1  UNL1        0.2420
     14 H          19.3517   20.1914    5.4548 H       1  UNL1        0.2420
     15 C          22.3785   17.5822    1.6171 C.ar    1  UNL1        0.0287
     16 C          22.1387   16.1019    1.5784 C.ar    1  UNL1       -0.0001
     17 C          23.3007   15.1534    1.5913 C.ar    1  UNL1        0.0014
     18 C          24.7024   15.6851    1.6427 C.ar    1  UNL1        0.0000
     19 C          24.9421   17.1653    1.6814 C.ar    1  UNL1       -0.0002
     20 C          23.7802   18.1138    1.6685 C.ar    1  UNL1       -0.0001
     21 C          23.0610   13.6732    1.5526 C.ar    1  UNL1        0.0222
     22 C          23.2037   12.8575    2.8033 C.ar    1  UNL1        0.0401
     23 C          22.9640   11.3772    2.7647 C.ar    1  UNL1        0.1578
     24 C          22.5815   10.7128    1.4754 C.ar    1  UNL1        0.1356
     25 N          22.4388   11.5286    0.2247 N.ar    1  UNL1       -0.2391
     26 C          22.6785   13.0088    0.2634 C.ar    1  UNL1        0.0991
     27 O          23.1067   10.5615    4.0153 O.3     1  UNL1       -0.4699
     28 C          22.0944   10.6907    5.1147 C.3     1  UNL1        0.2525
     29 C          21.3219   18.3916    0.1144 C.ar    1  UNL1        0.0289
     30 C          22.2963   19.2371   -0.6509 C.ar    1  UNL1        0.0030
     31 C          22.4015   19.0979   -2.1407 C.ar    1  UNL1        0.0369
     32 C          21.5324   18.1132   -2.8653 C.ar    1  UNL1        0.1443
     33 C          20.5580   17.2678   -2.1000 C.ar    1  UNL1        0.0369
     34 C          20.4527   17.4069   -0.6102 C.ar    1  UNL1        0.0030
     35 O          21.6377   17.9741   -4.3551 O.3     1  UNL1       -0.4236
     36 C          20.6612   18.6838   -5.2454 C.3     1  UNL1        0.5087
     37 F          20.8569   18.6724   -6.7326 F       1  UNL1       -0.1550
     38 F          19.4891   19.4051   -4.6487 F       1  UNL1       -0.1550
@<TRIPOS>BOND
     1     1     2    1
     2     2     3    1
     3     2     4    1
     4     4     5    1
     5     5     6    1
     6     6     7    2
     7     7     8    1
     8     6     9    1
     9     9    10    1
    10    10    11    2
    11    11    12    1
    12     9    15    1
    13    15    16   ar
    14    16    17   ar
    15    17    18   ar
    16    18    19   ar
    17    19    20   ar
    18    17    21    1
    19    21    22   ar
    20    22    23   ar
    21    23    27    1
    22    27    28    1
    23    23    24   ar
    24    24    25   ar
    25    25    26   ar
    26     9    29    1
    27    29    30   ar
    28    30    31   ar
    29    31    32   ar
    30    32    35    1
    31    35    36    1
    32    36    37    1
    33    36    38    1
    34    32    33   ar
    35    33    34   ar
    36     8     2    1
    37    20    15   ar
    38    26    21   ar
    39    34    29   ar
    40    11     5    1
    41    12    13    1
    42    12    14    1
@<TRIPOS>MOLECULE
*****
 38 42 0 0 0
SMALL
GASTEIGER

@<TRIPOS>ATOM
      1 F          22.9448   34.6950   -5.2535 F       1  UNL1       -0.1949
      2 C          23.7913   33.5809   -4.7127 C.3     1  UNL1        0.3549
      3 F          24.4541   33.7900   -6.0420 F       1  UNL1       -0.1949
      4 C          24.8680   32.5396   -4.6336 C.3     1  UNL1        0.2834
      5 N          24.9880   31.6760   -3.4130 N.pl3   1  UNL1       -0.1097
      6 C          24.0313   31.8538   -2.2715 C.2     1  UNL1        0.3476
      7 N          22.9546   32.8952   -2.3506 N.2     1  UNL1       -0.0589
      8 C          22.8347   33.7588   -3.5712 C.3     1  UNL1        0.3329
      9 C          24.3927   30.8628   -1.2051 C.3     1  UNL1        0.2788
     10 N          25.5728   30.0724   -1.6876 N.2     1  UNL1       -0.0796
     11 C          25.9407   30.5750   -3.0521 C.cat   1  UNL1        0.4044
     12 N          27.0641   30.0660   -3.9059 N.pl3   1  UNL1       -0.2440
     13 H          27.6382   29.3357   -3.5800 H       1  UNL1        0.2420
     14 H          27.2273   30.4623   -4.7922 H       1  UNL1        0.2420
     15 C          24.5127   29.9992    0.0155 C.ar    1  UNL1        0.0287
     16 C          23.4231   29.0259    0.3557 C.ar    1  UNL1       -0.0001
     17 C          23.5431   28.1624    1.5763 C.ar    1  UNL1        0.0014
     18 C          24.7526   28.2721    2.4567 C.ar    1  UNL1        0.0000
     19 C          25.8421   29.2453    2.1164 C.ar    1  UNL1       -0.0002
     20 C          25.7222   30.1088    0.8958 C.ar    1  UNL1       -0.0001
     21 C          22.4536   27.1892    1.9165 C.ar    1  UNL1        0.0222
     22 C          21.7439   26.4458    0.8239 C.ar    1  UNL1        0.0401
     23 C          20.6543   25.4726    1.1641 C.ar    1  UNL1        0.1578
     24 C          20.2745   25.2427    2.5969 C.ar    1  UNL1        0.1356
     25 N          20.9842   25.9861    3.6895 N.ar    1  UNL1       -0.2391
     26 C          22.0737   26.9593    3.3493 C.ar    1  UNL1        0.0991
     27 O          19.9446   24.7292    0.0716 O.3     1  UNL1       -0.4699
     28 C          18.4674   24.4867    0.1664 C.3     1  UNL1        0.2525
     29 C          23.2377   31.4726   -0.4675 C.ar    1  UNL1        0.0289
     30 C          23.4887   32.4402    0.6508 C.ar    1  UNL1        0.0030
     31 C          22.3337   33.0500    1.3885 C.ar    1  UNL1        0.0369
     32 C          20.9276   32.6922    1.0078 C.ar    1  UNL1        0.1443
     33 C          20.6766   31.7245   -0.1105 C.ar    1  UNL1        0.0369
     34 C          21.8316   31.1147   -0.8482 C.ar    1  UNL1        0.0030
     35 O          19.7726   33.3020    1.7454 O.3     1  UNL1       -0.4236
     36 C          18.3776   33.1421    1.2181 C.3     1  UNL1        0.5087
     37 F          17.8305   34.1316    0.2323 F       1  UNL1       -0.1550
     38 F          17.5295   31.9929    1.6765 F       1  UNL1       -0.1550
@<TRIPOS>BOND
     1     1     2    1
     2     2     3    1
     3     2     4    1
     4     4     5    1
     5     5     6    1
     6     6     7    2
     7     7     8    1
     8     6     9    1
     9     9    10    1
    10    10    11    2
    11    11    12    1
    12     9    15    1
    13    15    16   ar
    14    16    17   ar
    15    17    18   ar
    16    18    19   ar
    17    19    20   ar
    18    17    21    1
    19    21    22   ar
    20    22    23   ar
    21    23    27    1
    22    27    28    1
    23    23    24   ar
    24    24    25   ar
    25    25    26   ar
    26     9    29    1
    27    29    30   ar
    28    30    31   ar
    29    31    32   ar
    30    32    35    1
    31    35    36    1
    32    36    37    1
    33    36    38    1
    34    32    33   ar
    35    33    34   ar
    36     8     2    1
    37    20    15   ar
    38    26    21   ar
    39    34    29   ar
    40    11     5    1
    41    12    13    1
    42    12    14    1
@<TRIPOS>MOLECULE
*****
 38 42 0 0 0
SMALL
GASTEIGER

@<TRIPOS>ATOM
      1 F          20.9766   33.0329   -0.1891 F       1  UNL1       -0.1949
      2 C          21.3241   31.7570    0.5191 C.3     1  UNL1        0.3549
      3 F          20.0221   32.0810    1.1899 F       1  UNL1       -0.1949
      4 C          21.2195   30.5937    1.4602 C.3     1  UNL1        0.2834
      5 N          22.2961   29.5496    1.4847 N.pl3   1  UNL1       -0.1097
      6 C          23.4774   29.6687    0.5680 C.2     1  UNL1        0.3476
      7 N          23.5820   30.8320   -0.3731 N.2     1  UNL1       -0.0589
      8 C          22.5054   31.8761   -0.3976 C.3     1  UNL1        0.3329
      9 C          24.3761   28.4934    0.8149 C.3     1  UNL1        0.2788
     10 N          23.7502   27.6479    1.8843 N.2     1  UNL1       -0.0796
     11 C          22.4647   28.3006    2.2982 C.cat   1  UNL1        0.4044
     12 N          21.5146   27.7935    3.3423 N.pl3   1  UNL1       -0.2440
     13 H          21.7137   26.9590    3.8253 H       1  UNL1        0.2420
     14 H          20.6920   28.2951    3.5446 H       1  UNL1        0.2420
     15 C          25.4527   27.4492    0.8394 C.ar    1  UNL1        0.0287
     16 C          25.2195   26.1162    0.1923 C.ar    1  UNL1       -0.0001
     17 C          26.2961   25.0720    0.2167 C.ar    1  UNL1        0.0014
     18 C          27.6060   25.3609    0.8883 C.ar    1  UNL1        0.0000
     19 C          27.8391   26.6939    1.5353 C.ar    1  UNL1       -0.0002
     20 C          26.7625   27.7381    1.5109 C.ar    1  UNL1       -0.0001
     21 C          26.0630   23.7390   -0.4304 C.ar    1  UNL1        0.0222
     22 C          25.1689   22.7314    0.2293 C.ar    1  UNL1        0.0401
     23 C          24.9357   21.3983   -0.4178 C.ar    1  UNL1        0.1578
     24 C          25.5966   21.0730   -1.7245 C.ar    1  UNL1        0.1356
     25 N          26.4907   22.0808   -2.3841 N.ar    1  UNL1       -0.2391
     26 C          26.7238   23.4138   -1.7370 C.ar    1  UNL1        0.0991
     27 O          24.0416   20.3906    0.2418 O.3     1  UNL1       -0.4699
     28 C          24.5659   19.0241    0.5706 C.3     1  UNL1        0.2525
     29 C          25.2270   29.1206   -0.2493 C.ar    1  UNL1        0.0289
     30 C          24.9811   28.7979   -1.6933 C.ar    1  UNL1        0.0030
     31 C          25.8320   29.4251   -2.7576 C.ar    1  UNL1        0.0369
     32 C          26.9289   30.3751   -2.3777 C.ar    1  UNL1        0.1443
     33 C          27.1749   30.6978   -0.9336 C.ar    1  UNL1        0.0369
     34 C          26.3239   30.0706    0.1306 C.ar    1  UNL1        0.0030
     35 O          27.7798   31.0023   -3.4419 O.3     1  UNL1       -0.4236
     36 C          27.9505   30.3181   -4.7658 C.3     1  UNL1        0.5087
     37 F          28.9036   29.1674   -4.8979 F       1  UNL1       -0.1550
     38 F          27.1680   30.7846   -5.9576 F       1  UNL1       -0.1550
@<TRIPOS>BOND
     1     1     2    1
     2     2     3    1
     3     2     4    1
     4     4     5    1
     5     5     6    1
     6     6     7    2
     7     7     8    1
     8     6     9    1
     9     9    10    1
    10    10    11    2
    11    11    12    1
    12     9    15    1
    13    15    16   ar
    14    16    17   ar
    15    17    18   ar
    16    18    19   ar
    17    19    20   ar
    18    17    21    1
    19    21    22   ar
    20    22    23   ar
    21    23    27    1
    22    27    28    1
    23    23    24   ar
    24    24    25   ar
    25    25    26   ar
    26     9    29    1
    27    29    30   ar
    28    30    31   ar
    29    31    32   ar
    30    32    35    1
    31    35    36    1
    32    36    37    1
    33    36    38    1
    34    32    33   ar
    35    33    34   ar
    36     8     2    1
    37    20    15   ar
    38    26    21   ar
    39    34    29   ar
    40    11     5    1
    41    12    13    1
    42    12    14    1
@<TRIPOS>MOLECULE
*****
 38 42 0 0 0
SMALL
GASTEIGER

@<TRIPOS>ATOM
      1 F          23.5505   24.6188    2.1299 F       1  UNL1       -0.1949
      2 C          24.6714   25.0613    1.2368 C.3     1  UNL1        0.3549
      3 F          25.1108   23.6574    1.5301 F       1  UNL1       -0.1949
      4 C          25.9450   25.0163    0.4456 C.3     1  UNL1        0.2834
      5 N          26.3898   26.2215   -0.3288 N.pl3   1  UNL1       -0.1097
      6 C          25.5612   27.4717   -0.3120 C.2     1  UNL1        0.3476
      7 N          24.2876   27.5167    0.4792 N.2     1  UNL1       -0.0589
      8 C          23.8428   26.3115    1.2536 C.3     1  UNL1        0.3329
      9 C          26.2487   28.4950   -1.1665 C.3     1  UNL1        0.2788
     10 N          27.5023   27.8772   -1.7114 N.2     1  UNL1       -0.0796
     11 C          27.5896   26.4721   -1.1937 C.cat   1  UNL1        0.4044
     12 N          28.6842   25.4901   -1.4890 N.pl3   1  UNL1       -0.2440
     13 H          29.4343   25.7495   -2.0716 H       1  UNL1        0.2420
     14 H          28.6527   24.5862   -1.1003 H       1  UNL1        0.2420
     15 C          26.6935   29.7001   -1.9409 C.ar    1  UNL1        0.0287
     16 C          27.5334   30.7505   -1.2765 C.ar    1  UNL1       -0.0001
     17 C          27.9782   31.9557   -2.0509 C.ar    1  UNL1        0.0014
     18 C          27.5833   32.1104   -3.4897 C.ar    1  UNL1        0.0000
     19 C          26.7435   31.0601   -4.1540 C.ar    1  UNL1       -0.0002
     20 C          26.2986   29.8549   -3.3796 C.ar    1  UNL1       -0.0001
     21 C          28.8180   33.0061   -1.3865 C.ar    1  UNL1        0.0222
     22 C          30.2062   33.2816   -1.8837 C.ar    1  UNL1        0.0401
     23 C          31.0460   34.3320   -1.2193 C.ar    1  UNL1        0.1578
     24 C          30.4977   35.1069   -0.0578 C.ar    1  UNL1        0.1356
     25 N          29.1095   34.8313    0.4393 N.ar    1  UNL1       -0.2391
     26 C          28.2697   33.7809   -0.2251 C.ar    1  UNL1        0.0991
     27 O          32.4341   34.6076   -1.7164 O.3     1  UNL1       -0.4699
     28 C          32.6367   35.3894   -2.9805 C.3     1  UNL1        0.2525
     29 C          25.0881   29.3647   -0.7835 C.ar    1  UNL1        0.0289
     30 C          25.0627   30.0331    0.5591 C.ar    1  UNL1        0.0030
     31 C          23.9021   30.9028    0.9421 C.ar    1  UNL1        0.0369
     32 C          22.7669   31.1040   -0.0174 C.ar    1  UNL1        0.1443
     33 C          22.7923   30.4356   -1.3600 C.ar    1  UNL1        0.0369
     34 C          23.9529   29.5659   -1.7430 C.ar    1  UNL1        0.0030
     35 O          21.6063   31.9737    0.3656 O.3     1  UNL1       -0.4236
     36 C          21.7993   33.0936    1.3445 C.3     1  UNL1        0.5087
     37 F          22.8967   34.0941    1.1327 F       1  UNL1       -0.1550
     38 F          20.8950   33.2132    2.5354 F       1  UNL1       -0.1550
@<TRIPOS>BOND
     1     1     2    1
     2     2     3    1
     3     2     4    1
     4     4     5    1
     5     5     6    1
     6     6     7    2
     7     7     8    1
     8     6     9    1
     9     9    10    1
    10    10    11    2
    11    11    12    1
    12     9    15    1
    13    15    16   ar
    14    16    17   ar
    15    17    18   ar
    16    18    19   ar
    17    19    20   ar
    18    17    21    1
    19    21    22   ar
    20    22    23   ar
    21    23    27    1
    22    27    28    1
    23    23    24   ar
    24    24    25   ar
    25    25    26   ar
    26     9    29    1
    27    29    30   ar
    28    30    31   ar
    29    31    32   ar
    30    32    35    1
    31    35    36    1
    32    36    37    1
    33    36    38    1
    34    32    33   ar
    35    33    34   ar
    36     8     2    1
    37    20    15   ar
    38    26    21   ar
    39    34    29   ar
    40    11     5    1
    41    12    13    1
    42    12    14    1
@<TRIPOS>MOLECULE
*****
 38 42 0 0 0
SMALL
GASTEIGER

@<TRIPOS>ATOM
      1 F          23.7981   32.9718   -7.2962 F       1  UNL1       -0.1949
      2 C          24.6988   32.0359   -6.5459 C.3     1  UNL1        0.3549
      3 F          25.2511   31.8744   -7.9312 F       1  UNL1       -0.1949
      4 C          25.7913   31.0440   -6.2767 C.3     1  UNL1        0.2834
      5 N          26.0188   30.5387   -4.8829 N.pl3   1  UNL1       -0.1097
      6 C          25.1537   31.0252   -3.7582 C.2     1  UNL1        0.3476
      7 N          24.0612   32.0171   -4.0274 N.2     1  UNL1       -0.0589
      8 C          23.8338   32.5225   -5.4213 C.3     1  UNL1        0.3329
      9 C          25.6112   30.3534   -2.4975 C.3     1  UNL1        0.2788
     10 N          26.7591   29.4516   -2.8430 N.2     1  UNL1       -0.0796
     11 C          27.0110   29.5661   -4.3173 C.cat   1  UNL1        0.4044
     12 N          28.0692   28.8362   -5.0902 N.pl3   1  UNL1       -0.2440
     13 H          28.6765   28.2149   -4.6273 H       1  UNL1        0.2420
     14 H          28.1564   28.9786   -6.0605 H       1  UNL1        0.2420
     15 C          25.8387   29.8480   -1.1037 C.ar    1  UNL1        0.0287
     16 C          24.9431   28.7875   -0.5349 C.ar    1  UNL1       -0.0001
     17 C          25.1706   28.2821    0.8590 C.ar    1  UNL1        0.0014
     18 C          26.2936   28.8372    1.6841 C.ar    1  UNL1        0.0000
     19 C          27.1891   29.8977    1.1153 C.ar    1  UNL1       -0.0002
     20 C          26.9616   30.4031   -0.2785 C.ar    1  UNL1       -0.0001
     21 C          24.2751   27.2217    1.4277 C.ar    1  UNL1        0.0222
     22 C          22.8263   27.5186    1.6780 C.ar    1  UNL1        0.0401
     23 C          21.9307   26.4581    2.2468 C.ar    1  UNL1        0.1578
     24 C          22.4841   25.1008    2.5652 C.ar    1  UNL1        0.1356
     25 N          23.9330   24.8039    2.3149 N.ar    1  UNL1       -0.2391
     26 C          24.8285   25.8643    1.7461 C.ar    1  UNL1        0.0991
     27 O          20.4819   26.7550    2.4972 O.3     1  UNL1       -0.4699
     28 C          19.4329   25.7581    2.1023 C.3     1  UNL1        0.2525
     29 C          24.5110   31.1495   -1.8606 C.ar    1  UNL1        0.0289
     30 C          23.1766   30.5139   -1.6049 C.ar    1  UNL1        0.0030
     31 C          22.0763   31.3100   -0.9680 C.ar    1  UNL1        0.0369
     32 C          22.3104   32.7417   -0.5867 C.ar    1  UNL1        0.1443
     33 C          23.6448   33.3773   -0.8424 C.ar    1  UNL1        0.0369
     34 C          24.7451   32.5812   -1.4793 C.ar    1  UNL1        0.0030
     35 O          21.2102   33.5378    0.0502 O.3     1  UNL1       -0.4236
     36 C          20.4499   32.9704    1.2120 C.3     1  UNL1        0.5087
     37 F          20.8832   33.2790    2.6145 F       1  UNL1       -0.1550
     38 F          19.2561   32.0944    0.9715 F       1  UNL1       -0.1550
@<TRIPOS>BOND
     1     1     2    1
     2     2     3    1
     3     2     4    1
     4     4     5    1
     5     5     6    1
     6     6     7    2
     7     7     8    1
     8     6     9    1
     9     9    10    1
    10    10    11    2
    11    11    12    1
    12     9    15    1
    13    15    16   ar
    14    16    17   ar
    15    17    18   ar
    16    18    19   ar
    17    19    20   ar
    18    17    21    1
    19    21    22   ar
    20    22    23   ar
    21    23    27    1
    22    27    28    1
    23    23    24   ar
    24    24    25   ar
    25    25    26   ar
    26     9    29    1
    27    29    30   ar
    28    30    31   ar
    29    31    32   ar
    30    32    35    1
    31    35    36    1
    32    36    37    1
    33    36    38    1
    34    32    33   ar
    35    33    34   ar
    36     8     2    1
    37    20    15   ar
    38    26    21   ar
    39    34    29   ar
    40    11     5    1
    41    12    13    1
    42    12    14    1
@<TRIPOS>MOLECULE
*****
 38 42 0 0 0
SMALL
GASTEIGER

@<TRIPOS>ATOM
      1 F          20.9149   25.4411    2.7842 F       1  UNL1       -0.1949
      2 C          22.2964   25.5280    2.2062 C.3     1  UNL1        0.3549
      3 F          22.3069   24.1096    2.6942 F       1  UNL1       -0.1949
      4 C          23.6815   25.1223    1.7977 C.3     1  UNL1        0.2834
      5 N          24.5763   26.1047    1.1020 N.pl3   1  UNL1       -0.1097
      6 C          24.0860   27.4929    0.8148 C.2     1  UNL1        0.3476
      7 N          22.7010   27.8986    1.2233 N.2     1  UNL1       -0.0589
      8 C          21.8061   26.9162    1.9190 C.3     1  UNL1        0.3329
      9 C          25.1864   28.2385    0.1197 C.3     1  UNL1        0.2788
     10 N          26.3568   27.3112   -0.0227 N.2     1  UNL1       -0.0796
     11 C          25.9797   25.9924    0.5844 C.cat   1  UNL1        0.4044
     12 N          26.8528   24.7750    0.6606 N.pl3   1  UNL1       -0.2440
     13 H          27.7647   24.7993    0.2905 H       1  UNL1        0.2420
     14 H          26.5138   23.9517    1.0807 H       1  UNL1        0.2420
     15 C          26.0813   29.2210   -0.5761 C.ar    1  UNL1        0.0287
     16 C          26.1391   29.2521   -2.0747 C.ar    1  UNL1       -0.0001
     17 C          27.0339   30.2346   -2.7704 C.ar    1  UNL1        0.0014
     18 C          27.8709   31.1859   -1.9675 C.ar    1  UNL1        0.0000
     19 C          27.8130   31.1548   -0.4690 C.ar    1  UNL1       -0.0002
     20 C          26.9182   30.1723    0.2267 C.ar    1  UNL1       -0.0001
     21 C          27.0918   30.2658   -4.2689 C.ar    1  UNL1        0.0222
     22 C          25.9170   29.7964   -5.0748 C.ar    1  UNL1        0.0401
     23 C          25.9748   29.8276   -6.5734 C.ar    1  UNL1        0.1578
     24 C          27.2076   30.3281   -7.2661 C.ar    1  UNL1        0.1356
     25 N          28.3825   30.7974   -6.4602 N.ar    1  UNL1       -0.2391
     26 C          28.3246   30.7663   -4.9616 C.ar    1  UNL1        0.0991
     27 O          24.8000   29.3582   -7.3792 O.3     1  UNL1       -0.4699
     28 C          23.6966   30.3143   -7.7234 C.3     1  UNL1        0.2525
     29 C          24.2032   29.3713    0.1166 C.ar    1  UNL1        0.0289
     30 C          23.4266   29.6870   -1.1273 C.ar    1  UNL1        0.0030
     31 C          22.4433   30.8198   -1.1304 C.ar    1  UNL1        0.0369
     32 C          22.2366   31.6369    0.1104 C.ar    1  UNL1        0.1443
     33 C          23.0131   31.3212    1.3543 C.ar    1  UNL1        0.0369
     34 C          23.9964   30.1884    1.3574 C.ar    1  UNL1        0.0030
     35 O          21.2533   32.7697    0.1073 O.3     1  UNL1       -0.4236
     36 C          20.2428   32.8886    1.2094 C.3     1  UNL1        0.5087
     37 F          20.6689   33.3523    2.5708 F       1  UNL1       -0.1550
     38 F          18.8061   32.5438    0.9501 F       1  UNL1       -0.1550
@<TRIPOS>BOND
     1     1     2    1
     2     2     3    1
     3     2     4    1
     4     4     5    1
     5     5     6    1
     6     6     7    2
     7     7     8    1
     8     6     9    1
     9     9    10    1
    10    10    11    2
    11    11    12    1
    12     9    15    1
    13    15    16   ar
    14    16    17   ar
    15    17    18   ar
    16    18    19   ar
    17    19    20   ar
    18    17    21    1
    19    21    22   ar
    20    22    23   ar
    21    23    27    1
    22    27    28    1
    23    23    24   ar
    24    24    25   ar
    25    25    26   ar
    26     9    29    1
    27    29    30   ar
    28    30    31   ar
    29    31    32   ar
    30    32    35    1
    31    35    36    1
    32    36    37    1
    33    36    38    1
    34    32    33   ar
    35    33    34   ar
    36     8     2    1
    37    20    15   ar
    38    26    21   ar
    39    34    29   ar
    40    11     5    1
    41    12    13    1
    42    12    14    1
