@<TRIPOS>MOLECULE
*****
 36 40 0 0 0
SMALL
GASTEIGER

@<TRIPOS>ATOM
      1 F           2.6491    0.9642    0.0000 F       1  UNL1       -0.1949
      2 C           1.5000    0.0000    0.0000 C.3     1  UNL1        0.3549
      3 F           2.6491   -0.9642    0.0000 F       1  UNL1       -0.1949
      4 C           0.7500   -1.2990    0.0000 C.3     1  UNL1        0.2836
      5 N          -0.7500   -1.2990    0.0000 N.pl3   1  UNL1       -0.1043
      6 C          -1.5000    0.0000    0.0000 C.2     1  UNL1        0.3478
      7 N          -0.7500    1.2990    0.0000 N.2     1  UNL1       -0.0589
      8 C           0.7500    1.2990    0.0000 C.3     1  UNL1        0.3329
      9 C          -2.9672   -0.3119    0.0000 C.3     1  UNL1        0.2790
     10 N          -3.1240   -1.8037    0.0000 N.2     1  UNL1       -0.0742
     11 C          -1.7537   -2.4138    0.0000 C.cat   1  UNL1        0.4796
     12 N          -1.4418   -3.8810    0.0000 N.pl3   1  UNL1        0.1534
     13 C          -4.4672   -0.3119    0.0000 C.ar    1  UNL1        0.0287
     14 C          -5.2172    0.9872    0.0000 C.ar    1  UNL1       -0.0001
     15 C          -6.7172    0.9872    0.0000 C.ar    1  UNL1        0.0014
     16 C          -7.4672   -0.3119    0.0000 C.ar    1  UNL1        0.0000
     17 C          -6.7172   -1.6109    0.0000 C.ar    1  UNL1       -0.0002
     18 C          -5.2172   -1.6109    0.0000 C.ar    1  UNL1       -0.0001
     19 C          -7.4672    2.2862    0.0000 C.ar    1  UNL1        0.0222
     20 C          -6.7172    3.5852    0.0000 C.ar    1  UNL1        0.0401
     21 C          -7.4672    4.8843    0.0000 C.ar    1  UNL1        0.1578
     22 O          -6.7172    6.1833    0.0000 O.3     1  UNL1       -0.4699
     23 C          -7.4672    7.4824    0.0000 C.3     1  UNL1        0.2525
     24 C          -8.9672    4.8843    0.0000 C.ar    1  UNL1        0.1356
     25 N          -9.7172    3.5852    0.0000 N.ar    1  UNL1       -0.2391
     26 C          -8.9672    2.2862    0.0000 C.ar    1  UNL1        0.0991
     27 C          -3.1240    1.1799    0.0000 C.ar    1  UNL1        0.0289
     28 C          -1.9105    2.0616    0.0000 C.ar    1  UNL1        0.0030
     29 C          -2.0673    3.5534    0.0000 C.ar    1  UNL1        0.0369
     30 C          -3.4376    4.1635    0.0000 C.ar    1  UNL1        0.1443
     31 O          -3.5944    5.6553    0.0000 O.3     1  UNL1       -0.4236
     32 C          -2.3809    6.5369    0.0000 C.3     1  UNL1        0.5087
     33 F          -2.5377    8.0287    0.0000 F       1  UNL1       -0.1550
     34 F          -1.0105    5.9268    0.0000 F       1  UNL1       -0.1550
     35 C          -4.6511    3.2818    0.0000 C.ar    1  UNL1        0.0369
     36 C          -4.4943    1.7900    0.0000 C.ar    1  UNL1        0.0030
@<TRIPOS>BOND
     1     1     2    1
     2     2     3    1
     3     2     4    1
     4     4     5    1
     5     5     6    1
     6     6     7    2
     7     7     8    1
     8     6     9    1
     9     9    10    1
    10    10    11    2
    11    11    12    1
    12     9    13    1
    13    13    14   ar
    14    14    15   ar
    15    15    16   ar
    16    16    17   ar
    17    17    18   ar
    18    15    19    1
    19    19    20   ar
    20    20    21   ar
    21    21    22    1
    22    22    23    1
    23    21    24   ar
    24    24    25   ar
    25    25    26   ar
    26     9    27    1
    27    27    28   ar
    28    28    29   ar
    29    29    30   ar
    30    30    31    1
    31    31    32    1
    32    32    33    1
    33    32    34    1
    34    30    35   ar
    35    35    36   ar
    36     8     2    1
    37    18    13   ar
    38    26    19   ar
    39    36    27   ar
    40    11     5    1
