@<TRIPOS>MOLECULE
*****
 42 44 0 0 0
SMALL
GASTEIGER

@<TRIPOS>ATOM
      1 S          23.6509   25.2408    1.7710 S.O2    1  UNL1       -0.0041
      2 O          25.1218   24.9805    1.6332 O.2     1  UNL1       -0.1728
      3 O          23.6275   23.7746    1.4552 O.2     1  UNL1       -0.1728
      4 C          22.1720   24.9920    1.7991 C.3     1  UNL1        0.1540
      5 C          21.2273   26.1189    2.0952 C.3     1  UNL1        0.0606
      6 C          21.7616   27.4947    2.3631 C.3     1  UNL1        0.1632
      7 O          20.8169   28.6216    2.6591 O.3     1  UNL1       -0.3788
      8 C          23.2405   27.7435    2.3350 C.3     1  UNL1        0.1039
      9 C          24.1852   26.6166    2.0389 C.3     1  UNL1        0.2077
     10 H          20.1912   28.7205    1.9245 H       1  UNL1        0.2106
     11 N          23.7748   29.1193    2.6029 N.4     1  UNL1        0.2567
     12 H          24.3609   29.0507    3.4349 H       1  UNL1        0.2038
     13 H          22.9317   29.6895    2.6691 H       1  UNL1        0.2038
     14 C          24.5872   29.8251    1.5580 C.3     1  UNL1        0.1296
     15 C          23.9114   30.7138    0.5562 C.ar    1  UNL1        0.0322
     16 C          22.5858   31.3367    0.8800 C.ar    1  UNL1       -0.0029
     17 C          21.9101   32.2254   -0.1218 C.ar    1  UNL1       -0.0229
     18 C          22.5599   32.4911   -1.4474 C.ar    1  UNL1       -0.0043
     19 C          23.8854   31.8682   -1.7712 C.ar    1  UNL1       -0.0004
     20 C          24.5611   30.9795   -0.7694 C.ar    1  UNL1        0.0014
     21 C          20.5845   32.8484    0.2020 C.3     1  UNL1        0.0189
     22 C          20.3035   33.0115   -1.2623 C.3     1  UNL1        0.0044
     23 C          20.8655   32.6854    1.6664 C.3     1  UNL1        0.0044
     24 C          19.2590   33.4714    0.5257 C.3     1  UNL1        0.0044
     25 C          19.7483   25.8700    2.1233 C.3     1  UNL1        0.0309
     26 C          19.1634   24.7369    1.3334 C.ar    1  UNL1       -0.0167
     27 C          18.6686   23.5085    2.0378 C.ar    1  UNL1        0.0341
     28 C          18.0836   22.3754    1.2479 C.ar    1  UNL1        0.1532
     29 C          17.9934   22.4708   -0.2464 C.ar    1  UNL1        0.1037
     30 N          17.4084   21.3377   -1.0363 N.pl3   1  UNL1       -0.3529
     31 C          18.4882   23.6992   -0.9507 C.ar    1  UNL1        0.1556
     32 F          18.3980   23.7946   -2.4450 F       1  UNL1       -0.2028
     33 C          19.0732   24.8323   -0.1608 C.ar    1  UNL1        0.0268
     34 H          17.0837   20.5314   -0.5740 H       1  UNL1        0.1425
     35 H          17.3492   21.4002   -2.0170 H       1  UNL1        0.1425
     36 O          17.5888   21.1469    1.9523 O.3     1  UNL1       -0.4739
     37 C          18.5465   20.2872    2.7228 C.3     1  UNL1        0.2143
     38 C          18.2546   19.9334    4.1509 C.3     1  UNL1        0.1505
     39 C          19.3609   19.4637    5.0484 C.3     1  UNL1        0.4014
     40 F          20.4671   18.9940    5.9460 F       1  UNL1       -0.1699
     41 F          18.9873   20.5099    6.0564 F       1  UNL1       -0.1699
     42 F          19.7344   18.4175    4.0405 F       1  UNL1       -0.1699
@<TRIPOS>UNITY_ATOM_ATTR
11 1
charge 1
@<TRIPOS>BOND
     1     1     2    2
     2     1     3    2
     3     1     4    1
     4     4     5    1
     5     5    25    1
     6    25    26    1
     7    26    27   ar
     8    27    28   ar
     9    28    36    1
    10    36    37    1
    11    37    38    1
    12    38    39    1
    13    39    40    1
    14    39    41    1
    15    39    42    1
    16    28    29   ar
    17    29    30    1
    18    29    31   ar
    19    31    32    1
    20    31    33   ar
    21     5     6    1
    22     6     7    1
    23     6     8    1
    24     8    11    1
    25    11    14    1
    26    14    15    1
    27    15    16   ar
    28    16    17   ar
    29    17    18   ar
    30    18    19   ar
    31    19    20   ar
    32    17    21    1
    33    21    22    1
    34    21    23    1
    35    21    24    1
    36     8     9    1
    37     9     1    1
    38    33    26   ar
    39    20    15   ar
    40    30    34    1
    41    30    35    1
    42     7    10    1
    43    11    12    1
    44    11    13    1
@<TRIPOS>MOLECULE
*****
 42 44 0 0 0
SMALL
GASTEIGER

@<TRIPOS>ATOM
      1 S          23.7989   24.9431    1.5340 S.O2    1  UNL1       -0.0041
      2 O          23.8241   23.4606    1.3068 O.2     1  UNL1       -0.1728
      3 O          25.1363   24.8042    0.8691 O.2     1  UNL1       -0.1728
      4 C          24.2380   26.3773    1.5304 C.3     1  UNL1        0.1540
      5 C          23.3486   27.4355    2.1127 C.3     1  UNL1        0.0606
      6 C          22.0200   27.0595    2.6987 C.3     1  UNL1        0.1632
      7 O          21.1306   28.1177    3.2811 O.3     1  UNL1       -0.3788
      8 C          21.5809   25.6253    2.7024 C.3     1  UNL1        0.1039
      9 C          22.4703   24.5671    2.1200 C.3     1  UNL1        0.2077
     10 H          21.6052   28.5878    3.9844 H       1  UNL1        0.2106
     11 N          20.2522   25.2492    3.2884 N.4     1  UNL1        0.2567
     12 H          20.0593   25.9181    4.0339 H       1  UNL1        0.2038
     13 H          20.3817   24.2734    3.5558 H       1  UNL1        0.2038
     14 C          19.0323   25.2088    2.4166 C.3     1  UNL1        0.1296
     15 C          18.9887   24.2926    1.2297 C.ar    1  UNL1        0.0322
     16 C          19.3089   22.8364    1.3941 C.ar    1  UNL1       -0.0029
     17 C          19.2653   21.9203    0.2073 C.ar    1  UNL1       -0.0229
     18 C          18.9014   22.4602   -1.1440 C.ar    1  UNL1       -0.0043
     19 C          18.5812   23.9163   -1.3085 C.ar    1  UNL1       -0.0004
     20 C          18.6248   24.8325   -0.1217 C.ar    1  UNL1        0.0014
     21 C          19.5855   20.4640    0.3717 C.3     1  UNL1        0.0189
     22 C          18.5422   20.1194   -0.6494 C.3     1  UNL1        0.0044
     23 C          20.6288   20.8087    1.3928 C.3     1  UNL1        0.0044
     24 C          19.9056   19.0079    0.5361 C.3     1  UNL1        0.0044
     25 C          23.7879   28.8698    2.1090 C.3     1  UNL1        0.0309
     26 C          23.6648   29.6886    0.8583 C.ar    1  UNL1       -0.0167
     27 C          23.1954   31.1112    0.9363 C.ar    1  UNL1        0.0341
     28 C          23.0723   31.9301   -0.3144 C.ar    1  UNL1        0.1532
     29 C          23.4185   31.3263   -1.6432 C.ar    1  UNL1        0.1037
     30 N          23.2954   32.1451   -2.8940 N.pl3   1  UNL1       -0.3529
     31 C          23.8878   29.9038   -1.7212 C.ar    1  UNL1        0.1556
     32 F          24.2341   29.3000   -3.0501 F       1  UNL1       -0.2028
     33 C          24.0109   29.0850   -0.4705 C.ar    1  UNL1        0.0268
     34 H          22.9874   33.0788   -2.8428 H       1  UNL1        0.1425
     35 H          23.5227   31.7489   -3.7661 H       1  UNL1        0.1425
     36 O          22.6030   33.3526   -0.2364 O.3     1  UNL1       -0.4739
     37 C          21.3433   33.6871    0.5060 C.3     1  UNL1        0.2143
     38 C          20.0112   33.2994   -0.0642 C.3     1  UNL1        0.1505
     39 C          18.8603   33.0051    0.8516 C.3     1  UNL1        0.4014
     40 F          17.7093   32.7109    1.7674 F       1  UNL1       -0.1699
     41 F          19.3539   31.5987    1.0201 F       1  UNL1       -0.1699
     42 F          18.3666   34.4115    0.6831 F       1  UNL1       -0.1699
@<TRIPOS>UNITY_ATOM_ATTR
11 1
charge 1
@<TRIPOS>BOND
     1     1     2    2
     2     1     3    2
     3     1     4    1
     4     4     5    1
     5     5    25    1
     6    25    26    1
     7    26    27   ar
     8    27    28   ar
     9    28    36    1
    10    36    37    1
    11    37    38    1
    12    38    39    1
    13    39    40    1
    14    39    41    1
    15    39    42    1
    16    28    29   ar
    17    29    30    1
    18    29    31   ar
    19    31    32    1
    20    31    33   ar
    21     5     6    1
    22     6     7    1
    23     6     8    1
    24     8    11    1
    25    11    14    1
    26    14    15    1
    27    15    16   ar
    28    16    17   ar
    29    17    18   ar
    30    18    19   ar
    31    19    20   ar
    32    17    21    1
    33    21    22    1
    34    21    23    1
    35    21    24    1
    36     8     9    1
    37     9     1    1
    38    33    26   ar
    39    20    15   ar
    40    30    34    1
    41    30    35    1
    42     7    10    1
    43    11    12    1
    44    11    13    1
@<TRIPOS>MOLECULE
*****
 42 44 0 0 0
SMALL
GASTEIGER

@<TRIPOS>ATOM
      1 S          23.5824   25.2245    1.7397 S.O2    1  UNL1       -0.0041
      2 O          25.0421   24.8957    1.6342 O.2     1  UNL1       -0.1728
      3 O          23.4978   23.7575    1.4385 O.2     1  UNL1       -0.1728
      4 C          22.0933   25.0439    1.7406 C.3     1  UNL1        0.1540
      5 C          21.1957   26.2160    2.0060 C.3     1  UNL1        0.0606
      6 C          21.7872   27.5688    2.2705 C.3     1  UNL1        0.1632
      7 O          20.8896   28.7409    2.5360 O.3     1  UNL1       -0.3788
      8 C          23.2763   27.7495    2.2696 C.3     1  UNL1        0.1039
      9 C          24.1738   26.5774    2.0042 C.3     1  UNL1        0.2077
     10 H          20.2837   28.8601    1.7879 H       1  UNL1        0.2106
     11 N          23.8678   29.1024    2.5342 N.4     1  UNL1        0.2567
     12 H          24.4755   29.0041    3.3475 H       1  UNL1        0.2038
     13 H          23.0482   29.7018    2.6309 H       1  UNL1        0.2038
     14 C          24.6738   29.7892    1.4719 C.3     1  UNL1        0.1296
     15 C          23.9954   30.6811    0.4747 C.ar    1  UNL1        0.0322
     16 C          22.6758   31.3115    0.8081 C.ar    1  UNL1       -0.0029
     17 C          21.9974   32.2033   -0.1891 C.ar    1  UNL1       -0.0229
     18 C          22.6386   32.4647   -1.5197 C.ar    1  UNL1       -0.0043
     19 C          23.9582   31.8342   -1.8531 C.ar    1  UNL1       -0.0004
     20 C          24.6365   30.9424   -0.8559 C.ar    1  UNL1        0.0014
     21 C          20.6778   32.8338    0.1444 C.3     1  UNL1        0.0189
     22 C          20.4228   33.0716   -1.3145 C.3     1  UNL1        0.0044
     23 C          20.9327   32.5961    1.6033 C.3     1  UNL1        0.0044
     24 C          19.3582   33.4643    0.4777 C.3     1  UNL1        0.0044
     25 C          19.7066   26.0352    2.0069 C.3     1  UNL1        0.0309
     26 C          19.0970   24.8300    1.3544 C.ar    1  UNL1       -0.0167
     27 C          18.5286   23.7274    2.1979 C.ar    1  UNL1        0.0341
     28 C          17.9191   22.5222    1.5454 C.ar    1  UNL1        0.1532
     29 C          17.8779   22.4194    0.0494 C.ar    1  UNL1        0.1037
     30 N          17.2683   21.2142   -0.6030 N.pl3   1  UNL1       -0.3529
     31 C          18.4463   23.5220   -0.7940 C.ar    1  UNL1        0.1556
     32 F          18.4051   23.4192   -2.2899 F       1  UNL1       -0.2028
     33 C          19.0558   24.7272   -0.1415 C.ar    1  UNL1        0.0268
     34 H          16.8953   20.4905   -0.0495 H       1  UNL1        0.1425
     35 H          17.2413   21.1467   -1.5849 H       1  UNL1        0.1425
     36 O          17.3507   21.4196    2.3888 O.3     1  UNL1       -0.4739
     37 C          18.2558   20.5966    3.2568 C.3     1  UNL1        0.2143
     38 C          19.0981   19.5147    2.6486 C.3     1  UNL1        0.1505
     39 C          20.5826   19.6959    2.5323 C.3     1  UNL1        0.4014
     40 F          22.0671   19.8772    2.4160 F       1  UNL1       -0.1699
     41 F          20.4378   19.9370    1.0589 F       1  UNL1       -0.1699
     42 F          20.7274   19.4548    4.0057 F       1  UNL1       -0.1699
@<TRIPOS>UNITY_ATOM_ATTR
11 1
charge 1
@<TRIPOS>BOND
     1     1     2    2
     2     1     3    2
     3     1     4    1
     4     4     5    1
     5     5    25    1
     6    25    26    1
     7    26    27   ar
     8    27    28   ar
     9    28    36    1
    10    36    37    1
    11    37    38    1
    12    38    39    1
    13    39    40    1
    14    39    41    1
    15    39    42    1
    16    28    29   ar
    17    29    30    1
    18    29    31   ar
    19    31    32    1
    20    31    33   ar
    21     5     6    1
    22     6     7    1
    23     6     8    1
    24     8    11    1
    25    11    14    1
    26    14    15    1
    27    15    16   ar
    28    16    17   ar
    29    17    18   ar
    30    18    19   ar
    31    19    20   ar
    32    17    21    1
    33    21    22    1
    34    21    23    1
    35    21    24    1
    36     8     9    1
    37     9     1    1
    38    33    26   ar
    39    20    15   ar
    40    30    34    1
    41    30    35    1
    42     7    10    1
    43    11    12    1
    44    11    13    1
@<TRIPOS>MOLECULE
*****
 42 44 0 0 0
SMALL
GASTEIGER

@<TRIPOS>ATOM
      1 S          23.9413   25.3193    1.5046 S.O2    1  UNL1       -0.0041
      2 O          24.0859   23.8512    1.2326 O.2     1  UNL1       -0.1728
      3 O          25.2861   25.3087    0.8401 O.2     1  UNL1       -0.1728
      4 C          24.2637   26.7836    1.5458 C.3     1  UNL1        0.1540
      5 C          23.2916   27.7487    2.1569 C.3     1  UNL1        0.0606
      6 C          21.9971   27.2495    2.7269 C.3     1  UNL1        0.1632
      7 O          21.0249   28.2146    3.3381 O.3     1  UNL1       -0.3788
      8 C          21.6747   25.7852    2.6857 C.3     1  UNL1        0.1039
      9 C          22.6468   24.8201    2.0746 C.3     1  UNL1        0.2077
     10 H          21.4595   28.6997    4.0569 H       1  UNL1        0.2106
     11 N          20.3801   25.2859    3.2558 N.4     1  UNL1        0.2567
     12 H          20.1658   25.8753    4.0602 H       1  UNL1        0.2038
     13 H          20.5675   24.2992    3.4340 H       1  UNL1        0.2038
     14 C          19.1474   25.2539    2.4018 C.3     1  UNL1        0.1296
     15 C          19.0529   24.2892    1.2569 C.ar    1  UNL1        0.0322
     16 C          19.3225   22.8308    1.4809 C.ar    1  UNL1       -0.0029
     17 C          19.2280   21.8662    0.3361 C.ar    1  UNL1       -0.0229
     18 C          18.8639   22.3601   -1.0327 C.ar    1  UNL1       -0.0043
     19 C          18.5944   23.8186   -1.2567 C.ar    1  UNL1       -0.0004
     20 C          18.6888   24.7831   -0.1119 C.ar    1  UNL1        0.0014
     21 C          19.4976   20.4077    0.5600 C.3     1  UNL1        0.0189
     22 C          20.2004   20.3345   -0.7631 C.3     1  UNL1        0.0044
     23 C          18.7947   20.4809    1.8831 C.3     1  UNL1        0.0044
     24 C          19.7671   18.9492    0.7838 C.3     1  UNL1        0.0044
     25 C          23.6140   29.2132    2.1981 C.3     1  UNL1        0.0309
     26 C          23.0930   30.1262    1.1281 C.ar    1  UNL1       -0.0167
     27 C          23.9414   30.4402   -0.0684 C.ar    1  UNL1        0.0341
     28 C          23.4204   31.3533   -1.1384 C.ar    1  UNL1        0.1532
     29 C          22.0510   31.9523   -1.0119 C.ar    1  UNL1        0.1037
     30 N          21.5300   32.8653   -2.0819 N.pl3   1  UNL1       -0.3529
     31 C          21.2026   31.6382    0.1846 C.ar    1  UNL1        0.1556
     32 F          19.8332   32.2372    0.3111 F       1  UNL1       -0.2028
     33 C          21.7237   30.7252    1.2546 C.ar    1  UNL1        0.0268
     34 H          22.0868   33.0714   -2.8672 H       1  UNL1        0.1425
     35 H          20.6312   33.2584   -1.9989 H       1  UNL1        0.1425
     36 O          24.2688   31.6673   -2.3349 O.3     1  UNL1       -0.4739
     37 C          24.2352   30.7681   -3.5350 C.3     1  UNL1        0.2143
     38 C          25.3313   29.7676   -3.7534 C.3     1  UNL1        0.1505
     39 C          26.3236   29.4922   -2.6627 C.3     1  UNL1        0.4014
     40 F          27.3159   29.2167   -1.5721 F       1  UNL1       -0.1699
     41 F          27.2320   30.5461   -3.2230 F       1  UNL1       -0.1699
     42 F          25.4152   28.4382   -2.1025 F       1  UNL1       -0.1699
@<TRIPOS>UNITY_ATOM_ATTR
11 1
charge 1
@<TRIPOS>BOND
     1     1     2    2
     2     1     3    2
     3     1     4    1
     4     4     5    1
     5     5    25    1
     6    25    26    1
     7    26    27   ar
     8    27    28   ar
     9    28    36    1
    10    36    37    1
    11    37    38    1
    12    38    39    1
    13    39    40    1
    14    39    41    1
    15    39    42    1
    16    28    29   ar
    17    29    30    1
    18    29    31   ar
    19    31    32    1
    20    31    33   ar
    21     5     6    1
    22     6     7    1
    23     6     8    1
    24     8    11    1
    25    11    14    1
    26    14    15    1
    27    15    16   ar
    28    16    17   ar
    29    17    18   ar
    30    18    19   ar
    31    19    20   ar
    32    17    21    1
    33    21    22    1
    34    21    23    1
    35    21    24    1
    36     8     9    1
    37     9     1    1
    38    33    26   ar
    39    20    15   ar
    40    30    34    1
    41    30    35    1
    42     7    10    1
    43    11    12    1
    44    11    13    1
@<TRIPOS>MOLECULE
*****
 42 44 0 0 0
SMALL
GASTEIGER

@<TRIPOS>ATOM
      1 S          23.8091   25.3200    1.5962 S.O2    1  UNL1       -0.0041
      2 O          25.2911   25.3838    1.3731 O.2     1  UNL1       -0.1728
      3 O          24.0893   23.8778    1.2935 O.2     1  UNL1       -0.1728
      4 C          22.4245   24.7553    1.7141 C.3     1  UNL1        0.1540
      5 C          21.2743   25.6549    2.0573 C.3     1  UNL1        0.0606
      6 C          21.5087   27.1192    2.2825 C.3     1  UNL1        0.1632
      7 O          20.3585   28.0188    2.6256 O.3     1  UNL1       -0.3788
      8 C          22.8933   27.6839    2.1645 C.3     1  UNL1        0.1039
      9 C          24.0435   26.7843    1.8214 C.3     1  UNL1        0.2077
     10 H          19.6860   27.9639    1.9288 H       1  UNL1        0.2106
     11 N          23.1278   29.1483    2.3898 N.4     1  UNL1        0.2567
     12 H          23.8601   29.2241    3.0958 H       1  UNL1        0.2038
     13 H          22.2019   29.4990    2.6350 H       1  UNL1        0.2038
     14 C          23.5372   30.0270    1.2452 C.3     1  UNL1        0.1296
     15 C          22.6489   31.1549    0.8104 C.ar    1  UNL1        0.0322
     16 C          23.2076   32.2724   -0.0196 C.ar    1  UNL1       -0.0029
     17 C          22.3193   33.4002   -0.4544 C.ar    1  UNL1       -0.0229
     18 C          20.8724   33.4104   -0.0592 C.ar    1  UNL1       -0.0043
     19 C          20.3137   32.2928    0.7708 C.ar    1  UNL1       -0.0004
     20 C          21.2020   31.1651    1.2056 C.ar    1  UNL1        0.0014
     21 C          22.8780   34.5178   -1.2844 C.3     1  UNL1        0.0189
     22 C          23.0381   35.3546   -0.0498 C.3     1  UNL1        0.0044
     23 C          22.7180   33.6811   -2.5189 C.3     1  UNL1        0.0044
     24 C          23.4367   35.6354   -2.1143 C.3     1  UNL1        0.0044
     25 C          19.8896   25.0901    2.1752 C.3     1  UNL1        0.0309
     26 C          19.3829   24.1254    1.1444 C.ar    1  UNL1       -0.0167
     27 C          19.2343   22.6723    1.4861 C.ar    1  UNL1        0.0341
     28 C          18.7275   21.7076    0.4553 C.ar    1  UNL1        0.1532
     29 C          18.3693   22.1959   -0.9171 C.ar    1  UNL1        0.1037
     30 N          17.8626   21.2311   -1.9478 N.pl3   1  UNL1       -0.3529
     31 C          18.5179   23.6489   -1.2586 C.ar    1  UNL1        0.1556
     32 F          18.1597   24.1372   -2.6310 F       1  UNL1       -0.2028
     33 C          19.0247   24.6136   -0.2279 C.ar    1  UNL1        0.0268
     34 H          17.7651   20.2775   -1.7236 H       1  UNL1        0.1425
     35 H          17.6275   21.5516   -2.8485 H       1  UNL1        0.1425
     36 O          18.5789   20.2546    0.7968 O.3     1  UNL1       -0.4739
     37 C          19.7218   19.3100    0.5696 C.3     1  UNL1        0.2143
     38 C          20.2620   18.4984    1.7095 C.3     1  UNL1        0.1505
     39 C          20.1592   19.0159    3.1137 C.3     1  UNL1        0.4014
     40 F          20.0564   19.5334    4.5178 F       1  UNL1       -0.1699
     41 F          18.9103   18.2108    3.3190 F       1  UNL1       -0.1699
     42 F          21.4081   19.8210    2.9084 F       1  UNL1       -0.1699
@<TRIPOS>UNITY_ATOM_ATTR
11 1
charge 1
@<TRIPOS>BOND
     1     1     2    2
     2     1     3    2
     3     1     4    1
     4     4     5    1
     5     5    25    1
     6    25    26    1
     7    26    27   ar
     8    27    28   ar
     9    28    36    1
    10    36    37    1
    11    37    38    1
    12    38    39    1
    13    39    40    1
    14    39    41    1
    15    39    42    1
    16    28    29   ar
    17    29    30    1
    18    29    31   ar
    19    31    32    1
    20    31    33   ar
    21     5     6    1
    22     6     7    1
    23     6     8    1
    24     8    11    1
    25    11    14    1
    26    14    15    1
    27    15    16   ar
    28    16    17   ar
    29    17    18   ar
    30    18    19   ar
    31    19    20   ar
    32    17    21    1
    33    21    22    1
    34    21    23    1
    35    21    24    1
    36     8     9    1
    37     9     1    1
    38    33    26   ar
    39    20    15   ar
    40    30    34    1
    41    30    35    1
    42     7    10    1
    43    11    12    1
    44    11    13    1
@<TRIPOS>MOLECULE
*****
 42 44 0 0 0
SMALL
GASTEIGER

@<TRIPOS>ATOM
      1 S          21.1565   18.8933    1.7599 S.O2    1  UNL1       -0.0041
      2 O          20.0306   18.8117    2.7476 O.2     1  UNL1       -0.1728
      3 O          21.9357   18.8663    3.0414 O.2     1  UNL1       -0.1728
      4 C          22.5530   18.9656    1.2172 C.3     1  UNL1        0.1540
      5 C          22.7794   19.0365   -0.2639 C.3     1  UNL1        0.0606
      6 C          21.6093   19.0352   -1.2024 C.3     1  UNL1        0.1632
      7 O          21.8357   19.1061   -2.6835 O.3     1  UNL1       -0.3788
      8 C          20.2128   18.9629   -0.6597 C.3     1  UNL1        0.1039
      9 C          19.9864   18.8920    0.8214 C.3     1  UNL1        0.2077
     10 H          22.3422   19.9057   -2.8953 H       1  UNL1        0.2106
     11 N          19.0426   18.9616   -1.5982 N.4     1  UNL1        0.2567
     12 H          18.6570   18.0173   -1.5867 H       1  UNL1        0.2038
     13 H          19.4448   19.2931   -2.4750 H       1  UNL1        0.2038
     14 C          17.8957   19.9005   -1.3682 C.3     1  UNL1        0.1296
     15 C          18.1468   21.3737   -1.2386 C.ar    1  UNL1        0.0322
     16 C          18.2118   22.0067    0.1197 C.ar    1  UNL1       -0.0029
     17 C          18.4629   23.4799    0.2493 C.ar    1  UNL1       -0.0229
     18 C          18.6490   24.3199   -0.9794 C.ar    1  UNL1       -0.0043
     19 C          18.5840   23.6869   -2.3377 C.ar    1  UNL1       -0.0004
     20 C          18.3329   22.2137   -2.4673 C.ar    1  UNL1        0.0014
     21 C          18.5280   24.1130    1.6076 C.3     1  UNL1        0.0189
     22 C          18.7997   25.4450    0.9737 C.3     1  UNL1        0.0044
     23 C          18.2562   22.7810    2.2415 C.3     1  UNL1        0.0044
     24 C          18.5930   24.7461    2.9659 C.3     1  UNL1        0.0044
     25 C          24.1760   19.1087   -0.8066 C.3     1  UNL1        0.0309
     26 C          24.8576   20.4374   -0.9486 C.ar    1  UNL1       -0.0167
     27 C          24.8933   21.3897    0.2098 C.ar    1  UNL1        0.0341
     28 C          25.5749   22.7183    0.0677 C.ar    1  UNL1        0.1532
     29 C          26.2208   23.0946   -1.2328 C.ar    1  UNL1        0.1037
     30 N          26.9024   24.4232   -1.3749 N.pl3   1  UNL1       -0.3529
     31 C          26.1850   22.1423   -2.3912 C.ar    1  UNL1        0.1556
     32 F          26.8309   22.5187   -3.6917 F       1  UNL1       -0.2028
     33 C          25.5034   20.8137   -2.2491 C.ar    1  UNL1        0.0268
     34 H          26.9259   25.0482   -0.6146 H       1  UNL1        0.1425
     35 H          27.3263   24.6702   -2.2285 H       1  UNL1        0.1425
     36 O          25.6107   23.6706    1.2261 O.3     1  UNL1       -0.4739
     37 C          24.6170   24.7913    1.3066 C.3     1  UNL1        0.2143
     38 C          23.2306   24.5293    1.8155 C.3     1  UNL1        0.1505
     39 C          22.3077   25.6764    2.1026 C.3     1  UNL1        0.4014
     40 F          21.3848   26.8235    2.3897 F       1  UNL1       -0.1699
     41 F          22.4835   26.1696    0.6970 F       1  UNL1       -0.1699
     42 F          22.1319   25.1832    3.5083 F       1  UNL1       -0.1699
@<TRIPOS>UNITY_ATOM_ATTR
11 1
charge 1
@<TRIPOS>BOND
     1     1     2    2
     2     1     3    2
     3     1     4    1
     4     4     5    1
     5     5    25    1
     6    25    26    1
     7    26    27   ar
     8    27    28   ar
     9    28    36    1
    10    36    37    1
    11    37    38    1
    12    38    39    1
    13    39    40    1
    14    39    41    1
    15    39    42    1
    16    28    29   ar
    17    29    30    1
    18    29    31   ar
    19    31    32    1
    20    31    33   ar
    21     5     6    1
    22     6     7    1
    23     6     8    1
    24     8    11    1
    25    11    14    1
    26    14    15    1
    27    15    16   ar
    28    16    17   ar
    29    17    18   ar
    30    18    19   ar
    31    19    20   ar
    32    17    21    1
    33    21    22    1
    34    21    23    1
    35    21    24    1
    36     8     9    1
    37     9     1    1
    38    33    26   ar
    39    20    15   ar
    40    30    34    1
    41    30    35    1
    42     7    10    1
    43    11    12    1
    44    11    13    1
@<TRIPOS>MOLECULE
*****
 42 44 0 0 0
SMALL
GASTEIGER

@<TRIPOS>ATOM
      1 S          24.7659   17.5241    0.8974 S.O2    1  UNL1       -0.0041
      2 O          24.7559   16.3787    1.8660 O.2     1  UNL1       -0.1728
      3 O          26.0309   16.8281    0.4908 O.2     1  UNL1       -0.1728
      4 C          25.2152   18.4277   -0.2123 C.3     1  UNL1        0.1540
      5 C          24.3961   19.6296   -0.5791 C.3     1  UNL1        0.0606
      6 C          23.1276   19.9278    0.1639 C.3     1  UNL1        0.1632
      7 O          22.3085   21.1297   -0.2029 O.3     1  UNL1       -0.3788
      8 C          22.6783   19.0242    1.2736 C.3     1  UNL1        0.1039
      9 C          23.4974   17.8223    1.6404 C.3     1  UNL1        0.2077
     10 H          22.8533   21.9284   -0.1249 H       1  UNL1        0.2106
     11 N          21.4098   19.3224    2.0166 N.4     1  UNL1        0.2567
     12 H          21.4196   20.3203    2.2273 H       1  UNL1        0.2038
     13 H          21.4426   18.6763    2.8052 H       1  UNL1        0.2038
     14 C          20.0825   19.0266    1.3835 C.3     1  UNL1        0.1296
     15 C          19.4002   20.0700    0.5494 C.ar    1  UNL1        0.0322
     16 C          19.2513   21.4683    1.0715 C.ar    1  UNL1       -0.0029
     17 C          18.5690   22.5116    0.2374 C.ar    1  UNL1       -0.0229
     18 C          18.0356   22.1567   -1.1189 C.ar    1  UNL1       -0.0043
     19 C          18.1845   20.7585   -1.6410 C.ar    1  UNL1       -0.0004
     20 C          18.8668   19.7151   -0.8069 C.ar    1  UNL1        0.0014
     21 C          18.4201   23.9100    0.7595 C.3     1  UNL1        0.0189
     22 C          18.8241   24.4528   -0.5792 C.3     1  UNL1        0.0044
     23 C          18.0162   23.3672    2.0982 C.3     1  UNL1        0.0044
     24 C          18.2713   25.3083    1.2816 C.3     1  UNL1        0.0044
     25 C          24.8455   20.5332   -1.6888 C.3     1  UNL1        0.0309
     26 C          25.6051   21.7877   -1.3735 C.ar    1  UNL1       -0.0167
     27 C          25.3890   22.4861   -0.0637 C.ar    1  UNL1        0.0341
     28 C          26.1486   23.7405    0.2516 C.ar    1  UNL1        0.1532
     29 C          27.1243   24.2965   -0.7429 C.ar    1  UNL1        0.1037
     30 N          27.8839   25.5509   -0.4276 N.pl3   1  UNL1       -0.3529
     31 C          27.3403   23.5981   -2.0527 C.ar    1  UNL1        0.1556
     32 F          28.3160   24.1540   -3.0472 F       1  UNL1       -0.2028
     33 C          26.5807   22.3436   -2.3680 C.ar    1  UNL1        0.0268
     34 H          27.7421   26.0093    0.4320 H       1  UNL1        0.1425
     35 H          28.5243   25.9158   -1.0803 H       1  UNL1        0.1425
     36 O          25.9326   24.4390    1.5613 O.3     1  UNL1       -0.4739
     37 C          24.7935   25.4021    1.7188 C.3     1  UNL1        0.2143
     38 C          23.3923   24.8883    1.8696 C.3     1  UNL1        0.1505
     39 C          22.2319   25.8333    1.7674 C.3     1  UNL1        0.4014
     40 F          21.0715   26.7783    1.6653 F       1  UNL1       -0.1699
     41 F          23.0530   26.7488    0.9085 F       1  UNL1       -0.1699
     42 F          21.4108   24.9179    2.6263 F       1  UNL1       -0.1699
@<TRIPOS>UNITY_ATOM_ATTR
11 1
charge 1
@<TRIPOS>BOND
     1     1     2    2
     2     1     3    2
     3     1     4    1
     4     4     5    1
     5     5    25    1
     6    25    26    1
     7    26    27   ar
     8    27    28   ar
     9    28    36    1
    10    36    37    1
    11    37    38    1
    12    38    39    1
    13    39    40    1
    14    39    41    1
    15    39    42    1
    16    28    29   ar
    17    29    30    1
    18    29    31   ar
    19    31    32    1
    20    31    33   ar
    21     5     6    1
    22     6     7    1
    23     6     8    1
    24     8    11    1
    25    11    14    1
    26    14    15    1
    27    15    16   ar
    28    16    17   ar
    29    17    18   ar
    30    18    19   ar
    31    19    20   ar
    32    17    21    1
    33    21    22    1
    34    21    23    1
    35    21    24    1
    36     8     9    1
    37     9     1    1
    38    33    26   ar
    39    20    15   ar
    40    30    34    1
    41    30    35    1
    42     7    10    1
    43    11    12    1
    44    11    13    1
@<TRIPOS>MOLECULE
*****
 42 44 0 0 0
SMALL
GASTEIGER

@<TRIPOS>ATOM
      1 S          25.4044   17.0688    0.3871 S.O2    1  UNL1       -0.0041
      2 O          25.6940   15.8256    1.1751 O.2     1  UNL1       -0.1728
      3 O          26.5874   16.5477   -0.3738 O.2     1  UNL1       -0.1728
      4 C          25.5256   18.1309   -0.6650 C.3     1  UNL1        0.1540
      5 C          24.5645   19.2824   -0.6826 C.3     1  UNL1        0.0606
      6 C          23.4821   19.3717    0.3519 C.3     1  UNL1        0.1632
      7 O          22.5209   20.5231    0.3343 O.3     1  UNL1       -0.3788
      8 C          23.3608   18.3095    1.4041 C.3     1  UNL1        0.1039
      9 C          24.3220   17.1581    1.4217 C.3     1  UNL1        0.2077
     10 H          23.0135   21.3565    0.3959 H       1  UNL1        0.2106
     11 N          22.2784   18.3988    2.4388 N.4     1  UNL1        0.2567
     12 H          22.2528   19.3681    2.7552 H       1  UNL1        0.2038
     13 H          22.5471   17.6898    3.1210 H       1  UNL1        0.2038
     14 C          20.8703   18.0212    2.0856 C.3     1  UNL1        0.1296
     15 C          19.7764   19.0444    2.1676 C.ar    1  UNL1        0.0322
     16 C          19.4771   19.9187    0.9861 C.ar    1  UNL1       -0.0029
     17 C          18.3832   20.9417    1.0682 C.ar    1  UNL1       -0.0229
     18 C          17.5887   21.0905    2.3318 C.ar    1  UNL1       -0.0043
     19 C          17.8880   20.2161    3.5132 C.ar    1  UNL1       -0.0004
     20 C          18.9818   19.1931    3.4312 C.ar    1  UNL1        0.0014
     21 C          18.0839   21.8161   -0.1133 C.3     1  UNL1        0.0189
     22 C          19.1007   21.0687   -0.9240 C.3     1  UNL1        0.0044
     23 C          17.0671   22.5636    0.6974 C.3     1  UNL1        0.0044
     24 C          17.7846   22.6904   -1.2948 C.3     1  UNL1        0.0044
     25 C          24.6857   20.3445   -1.7349 C.3     1  UNL1        0.0309
     26 C          25.4734   21.5902   -1.4558 C.ar    1  UNL1       -0.0167
     27 C          25.3103   22.3030   -0.1460 C.ar    1  UNL1        0.0341
     28 C          26.0980   23.5487    0.1330 C.ar    1  UNL1        0.1532
     29 C          27.0487   24.0816   -0.8977 C.ar    1  UNL1        0.1037
     30 N          27.8363   25.3273   -0.6186 N.pl3   1  UNL1       -0.3529
     31 C          27.2117   23.3688   -2.2074 C.ar    1  UNL1        0.1556
     32 F          28.1623   23.9017   -3.2381 F       1  UNL1       -0.2028
     33 C          26.4240   22.1231   -2.4864 C.ar    1  UNL1        0.0268
     34 H          27.7293   25.7951    0.2410 H       1  UNL1        0.1425
     35 H          28.4603   25.6770   -1.2950 H       1  UNL1        0.1425
     36 O          25.9350   24.2614    1.4427 O.3     1  UNL1       -0.4739
     37 C          24.8327   25.2633    1.6193 C.3     1  UNL1        0.2143
     38 C          23.4412   24.7999    1.9337 C.3     1  UNL1        0.1505
     39 C          22.3271   25.7974    2.0511 C.3     1  UNL1        0.4014
     40 F          21.2130   26.7948    2.1685 F       1  UNL1       -0.1699
     41 F          22.0341   25.3068    3.4380 F       1  UNL1       -0.1699
     42 F          22.6201   26.2879    0.6642 F       1  UNL1       -0.1699
@<TRIPOS>UNITY_ATOM_ATTR
11 1
charge 1
@<TRIPOS>BOND
     1     1     2    2
     2     1     3    2
     3     1     4    1
     4     4     5    1
     5     5    25    1
     6    25    26    1
     7    26    27   ar
     8    27    28   ar
     9    28    36    1
    10    36    37    1
    11    37    38    1
    12    38    39    1
    13    39    40    1
    14    39    41    1
    15    39    42    1
    16    28    29   ar
    17    29    30    1
    18    29    31   ar
    19    31    32    1
    20    31    33   ar
    21     5     6    1
    22     6     7    1
    23     6     8    1
    24     8    11    1
    25    11    14    1
    26    14    15    1
    27    15    16   ar
    28    16    17   ar
    29    17    18   ar
    30    18    19   ar
    31    19    20   ar
    32    17    21    1
    33    21    22    1
    34    21    23    1
    35    21    24    1
    36     8     9    1
    37     9     1    1
    38    33    26   ar
    39    20    15   ar
    40    30    34    1
    41    30    35    1
    42     7    10    1
    43    11    12    1
    44    11    13    1
@<TRIPOS>MOLECULE
*****
 42 44 0 0 0
SMALL
GASTEIGER

@<TRIPOS>ATOM
      1 S          28.0158   24.4602   -1.5868 S.O2    1  UNL1       -0.0041
      2 O          28.7776   24.2679   -2.8646 O.2     1  UNL1       -0.1728
      3 O          29.0596   25.5261   -1.4306 O.2     1  UNL1       -0.1728
      4 C          27.6165   25.0225   -0.2548 C.3     1  UNL1        0.1540
      5 C          26.4380   24.4523    0.4773 C.3     1  UNL1        0.0606
      6 C          25.6588   23.3197   -0.1226 C.3     1  UNL1        0.1632
      7 O          24.4803   22.7494    0.6095 O.3     1  UNL1       -0.3788
      8 C          26.0581   22.7573   -1.4546 C.3     1  UNL1        0.1039
      9 C          27.2366   23.3275   -2.1867 C.3     1  UNL1        0.2077
     10 H          24.7619   22.4408    1.4849 H       1  UNL1        0.2106
     11 N          25.2789   21.6246   -2.0546 N.4     1  UNL1        0.2567
     12 H          25.6022   21.5217   -3.0165 H       1  UNL1        0.2038
     13 H          24.3089   21.9068   -1.9136 H       1  UNL1        0.2038
     14 C          25.3356   20.2618   -1.4306 C.3     1  UNL1        0.1296
     15 C          24.2264   19.8017   -0.5316 C.ar    1  UNL1        0.0322
     16 C          22.8091   20.1928   -0.8287 C.ar    1  UNL1       -0.0029
     17 C          21.7000   19.7327    0.0702 C.ar    1  UNL1       -0.0229
     18 C          22.0082   18.8814    1.2662 C.ar    1  UNL1       -0.0043
     19 C          23.4254   18.4903    1.5633 C.ar    1  UNL1       -0.0004
     20 C          24.5346   18.9504    0.6644 C.ar    1  UNL1        0.0014
     21 C          20.2827   20.1238   -0.2269 C.3     1  UNL1        0.0189
     22 C          20.2925   21.0533    0.9503 C.3     1  UNL1        0.0044
     23 C          20.2728   19.1943   -1.4041 C.3     1  UNL1        0.0044
     24 C          18.8654   20.5149   -0.5239 C.3     1  UNL1        0.0044
     25 C          26.0388   25.0147    1.8094 C.3     1  UNL1        0.0309
     26 C          24.9278   26.0188    1.8970 C.ar    1  UNL1       -0.0167
     27 C          23.5067   25.5557    2.0248 C.ar    1  UNL1        0.0341
     28 C          22.3958   26.5597    2.1124 C.ar    1  UNL1        0.1532
     29 C          22.7059   28.0268    2.0722 C.ar    1  UNL1        0.1037
     30 N          21.5949   29.0309    2.1598 N.pl3   1  UNL1       -0.3529
     31 C          24.1268   28.4898    1.9444 C.ar    1  UNL1        0.1556
     32 F          24.4369   29.9569    1.9042 F       1  UNL1       -0.2028
     33 C          25.2378   27.4858    1.8568 C.ar    1  UNL1        0.0268
     34 H          20.6622   28.7270    2.2437 H       1  UNL1        0.1425
     35 H          21.7984   29.9938    2.1334 H       1  UNL1        0.1425
     36 O          20.9748   26.0968    2.2402 O.3     1  UNL1       -0.4739
     37 C          20.3478   25.2885    1.1432 C.3     1  UNL1        0.2143
     38 C          18.8609   25.3156    0.9475 C.3     1  UNL1        0.1505
     39 C          18.0358   24.1137    1.3008 C.3     1  UNL1        0.4014
     40 F          17.2108   22.9119    1.6541 F       1  UNL1       -0.1699
     41 F          18.1263   24.4785    2.7529 F       1  UNL1       -0.1699
     42 F          17.9454   23.7490   -0.1514 F       1  UNL1       -0.1699
@<TRIPOS>UNITY_ATOM_ATTR
11 1
charge 1
@<TRIPOS>BOND
     1     1     2    2
     2     1     3    2
     3     1     4    1
     4     4     5    1
     5     5    25    1
     6    25    26    1
     7    26    27   ar
     8    27    28   ar
     9    28    36    1
    10    36    37    1
    11    37    38    1
    12    38    39    1
    13    39    40    1
    14    39    41    1
    15    39    42    1
    16    28    29   ar
    17    29    30    1
    18    29    31   ar
    19    31    32    1
    20    31    33   ar
    21     5     6    1
    22     6     7    1
    23     6     8    1
    24     8    11    1
    25    11    14    1
    26    14    15    1
    27    15    16   ar
    28    16    17   ar
    29    17    18   ar
    30    18    19   ar
    31    19    20   ar
    32    17    21    1
    33    21    22    1
    34    21    23    1
    35    21    24    1
    36     8     9    1
    37     9     1    1
    38    33    26   ar
    39    20    15   ar
    40    30    34    1
    41    30    35    1
    42     7    10    1
    43    11    12    1
    44    11    13    1
