@<TRIPOS>MOLECULE
*****
 47 50 0 0 0
SMALL
GASTEIGER

@<TRIPOS>ATOM
      1 F           3.0000    0.0000    0.0000 F       1  UNL1       -0.2041
      2 C           1.5000    0.0000    0.0000 C.ar    1  UNL1        0.1421
      3 C           0.7500   -1.2990    0.0000 C.ar    1  UNL1        0.0256
      4 C          -0.7500   -1.2990    0.0000 C.ar    1  UNL1       -0.0159
      5 C          -1.5000    0.0000    0.0000 C.ar    1  UNL1        0.0256
      6 C          -0.7500    1.2990    0.0000 C.ar    1  UNL1        0.1421
      7 F          -1.5000    2.5981    0.0000 F       1  UNL1       -0.2041
      8 C           0.7500    1.2990    0.0000 C.ar    1  UNL1        0.0592
      9 C          -1.5000   -2.5981    0.0000 C.3     1  UNL1        0.0510
     10 C          -3.0000   -2.5981    0.0000 C.3     1  UNL1        0.1359
     11 N          -3.7500   -1.2990    0.0000 N.am    1  UNL1       -0.2026
     12 C          -5.2500   -1.2990    0.0000 C.2     1  UNL1        0.2595
     13 O          -6.0000   -2.5981    0.0000 O.2     1  UNL1       -0.2716
     14 C          -6.0000    0.0000    0.0000 C.3     1  UNL1        0.1538
     15 N          -5.2500    1.2990    0.0000 N.am    1  UNL1       -0.2715
     16 C          -3.7582    1.4558    0.0000 C.3     1  UNL1        0.0961
     17 C          -3.4463    2.9231    0.0000 C.3     1  UNL1        0.0504
     18 C          -4.7454    3.6731    0.0000 C.3     1  UNL1        0.1485
     19 N          -5.8601    4.6767    0.0000 N.am    1  UNL1       -0.1999
     20 C          -5.5482    6.1440    0.0000 C.2     1  UNL1        0.2422
     21 O          -4.1217    6.6075    0.0000 O.2     1  UNL1       -0.2733
     22 C          -6.6630    7.1477    0.0000 C.3     1  UNL1        0.0964
     23 C          -3.8637    4.8866    0.0000 C.3     1  UNL1        0.0289
     24 C          -2.3719    4.7298    0.0000 C.3     1  UNL1        0.0021
     25 C          -1.4902    5.9433    0.0000 C.3     1  UNL1        0.0001
     26 C          -1.7618    3.3595    0.0000 C.3     1  UNL1        0.0001
     27 C          -5.8601    2.6694    0.0000 C.2     1  UNL1        0.2438
     28 O          -7.3273    2.9812    0.0000 O.2     1  UNL1       -0.2731
     29 C          -7.5000    0.0000    0.0000 C.3     1  UNL1        0.0339
     30 C          -8.2500    1.2990    0.0000 C.3     1  UNL1        0.0286
     31 C          -9.7500    1.2990    0.0000 C.ar    1  UNL1       -0.0221
     32 C         -10.5000    2.5981    0.0000 C.ar    1  UNL1       -0.0043
     33 C         -12.0000    2.5981    0.0000 C.ar    1  UNL1       -0.0003
     34 C         -12.7500    1.2990    0.0000 C.ar    1  UNL1       -0.0000
     35 C         -12.0000    0.0000    0.0000 C.ar    1  UNL1       -0.0003
     36 C         -10.5000    0.0000    0.0000 C.ar    1  UNL1       -0.0043
     37 C          -3.7500   -3.8971    0.0000 C.3     1  UNL1        0.2281
     38 O          -5.2500   -3.8971    0.0000 O.3     1  UNL1       -0.2149
     39 C          -3.0000   -5.1962    0.0000 C.3     1  UNL1        0.1786
     40 N          -1.5082   -5.3529    0.0000 N.4     1  UNL1        0.4475
     41 C          -1.1963   -6.8202    0.0000 C.3     1  UNL1        0.2303
     42 C          -2.4954   -7.5702    0.0000 C.3     1  UNL1        0.1836
     43 O          -2.6522   -9.0619    0.0000 O.3     1  UNL1       -0.3497
     44 C          -1.4387   -9.9436    0.0000 C.3     1  UNL1        0.1423
     45 C          -0.0683   -9.3335    0.0000 C.3     1  UNL1        0.0321
     46 C           1.1452  -10.2152    0.0000 C.3     1  UNL1        0.0027
     47 C          -3.6101   -6.5665    0.0000 C.3     1  UNL1        0.1012
@<TRIPOS>UNITY_ATOM_ATTR
40 1
charge 1
@<TRIPOS>BOND
     1     1     2    1
     2     2     3   ar
     3     3     4   ar
     4     4     5   ar
     5     5     6   ar
     6     6     7    1
     7     6     8   ar
     8     4     9    1
     9    10     9    1
    10    10    11    1
    11    11    12   am
    12    12    13    2
    13    12    14    1
    14    14    15    1
    15    15    16    1
    16    16    17    1
    17    17    18    1
    18    18    19    1
    19    19    20   am
    20    20    21    2
    21    20    22    1
    22    18    23    1
    23    23    24    1
    24    24    25    1
    25    24    26    1
    26    18    27    1
    27    27    28    2
    28    14    29    1
    29    29    30    1
    30    30    31    1
    31    31    32   ar
    32    32    33   ar
    33    33    34   ar
    34    34    35   ar
    35    35    36   ar
    36    10    37    1
    37    37    38    1
    38    37    39    1
    39    39    40    1
    40    40    41    1
    41    41    42    1
    42    42    43    1
    43    43    44    1
    44    44    45    1
    45    45    46    1
    46    42    47    1
    47     8     2   ar
    48    27    15   am
    49    36    31   ar
    50    39    47    1
