@<TRIPOS>MOLECULE
*****
 37 39 0 0 0
SMALL
GASTEIGER

@<TRIPOS>ATOM
      1 S           1.5000    0.0000    0.0000 S.O2    1  UNL1       -0.0039
      2 O           2.6491    0.9642    0.0000 O.2     1  UNL1       -0.1728
      3 O           2.6491   -0.9642    0.0000 O.2     1  UNL1       -0.1728
      4 C           0.7500   -1.2990    0.0000 C.3     1  UNL1        0.1541
      5 C          -0.7500   -1.2990    0.0000 C.3     1  UNL1        0.0644
      6 C          -1.5000   -2.5981    0.0000 C.3     1  UNL1        0.0310
      7 C          -3.0000   -2.5981    0.0000 C.ar    1  UNL1       -0.0167
      8 C          -3.7500   -1.2990    0.0000 C.ar    1  UNL1        0.0342
      9 C          -5.2500   -1.2990    0.0000 C.ar    1  UNL1        0.1570
     10 O          -6.0000    0.0000    0.0000 O.3     1  UNL1       -0.4737
     11 C          -7.5000    0.0000    0.0000 C.3     1  UNL1        0.2143
     12 C          -8.2500    1.2990    0.0000 C.3     1  UNL1        0.1505
     13 C          -9.7500    1.2990    0.0000 C.3     1  UNL1        0.4014
     14 F         -11.2500    1.2990    0.0000 F       1  UNL1       -0.1699
     15 F          -9.7500    2.7990    0.0000 F       1  UNL1       -0.1699
     16 F          -9.7500   -0.2010    0.0000 F       1  UNL1       -0.1699
     17 C          -6.0000   -2.5981    0.0000 C.ar    1  UNL1        0.1501
     18 N          -7.5000   -2.5981    0.0000 N.pl3   1  UNL1       -0.1225
     19 C          -5.2500   -3.8971    0.0000 C.ar    1  UNL1        0.1594
     20 F          -6.0000   -5.1962    0.0000 F       1  UNL1       -0.2027
     21 C          -3.7500   -3.8971    0.0000 C.ar    1  UNL1        0.0270
     22 C          -1.5000    0.0000    0.0000 C.3     1  UNL1        0.2118
     23 O          -3.0000    0.0000    0.0000 O.3     1  UNL1       -0.2166
     24 C          -0.7500    1.2990    0.0000 C.3     1  UNL1        0.1985
     25 N          -1.5000    2.5981    0.0000 N.4     1  UNL1        0.4506
     26 C          -0.7500    3.8971    0.0000 C.3     1  UNL1        0.2282
     27 C          -1.5000    5.1962    0.0000 C.ar    1  UNL1        0.0399
     28 C          -0.7500    6.4952    0.0000 C.ar    1  UNL1       -0.0027
     29 C          -1.5000    7.7942    0.0000 C.ar    1  UNL1       -0.0229
     30 C          -3.0000    7.7942    0.0000 C.ar    1  UNL1       -0.0043
     31 C          -3.7500    6.4952    0.0000 C.ar    1  UNL1       -0.0004
     32 C          -3.0000    5.1962    0.0000 C.ar    1  UNL1        0.0016
     33 C          -0.7500    9.0933    0.0000 C.3     1  UNL1        0.0189
     34 C           0.5490    8.3433    0.0000 C.3     1  UNL1        0.0044
     35 C          -2.0490    9.8433    0.0000 C.3     1  UNL1        0.0044
     36 C           0.0000   10.3923    0.0000 C.3     1  UNL1        0.0044
     37 C           0.7500    1.2990    0.0000 C.3     1  UNL1        0.2155
@<TRIPOS>UNITY_ATOM_ATTR
25 1
charge 1
@<TRIPOS>BOND
     1     1     2    2
     2     1     3    2
     3     1     4    1
     4     4     5    1
     5     5     6    1
     6     6     7    1
     7     7     8   ar
     8     8     9   ar
     9     9    10    1
    10    10    11    1
    11    11    12    1
    12    12    13    1
    13    13    14    1
    14    13    15    1
    15    13    16    1
    16     9    17   ar
    17    17    18    1
    18    17    19   ar
    19    19    20    1
    20    19    21   ar
    21     5    22    1
    22    22    23    1
    23    22    24    1
    24    24    25    1
    25    25    26    1
    26    26    27    1
    27    27    28   ar
    28    28    29   ar
    29    29    30   ar
    30    30    31   ar
    31    31    32   ar
    32    29    33    1
    33    33    34    1
    34    33    35    1
    35    33    36    1
    36    24    37    1
    37    37     1    1
    38    21     7   ar
    39    32    27   ar
